/*--------------------------------*- C++ -*----------------------------------*\
| =========                 |                                                 |
| \\      /  F ield         | OpenFOAM: The Open Source CFD Toolbox           |
|  \\    /   O peration     | Version:  v3.0+                                 |
|   \\  /    A nd           | Web:      www.OpenFOAM.com                      |
|    \\/     M anipulation  |                                                 |
\*---------------------------------------------------------------------------*/
FoamFile
{
    version     2.0;
    format      ascii;
    class       dictionary;
    object      decomposeParDict;
}

// * * * * * * * * * * * * * * * * * * * * * * * * * * * * * * * * * * * * * //

numberOfSubdomains 4;

method          scotch;

simpleCoeffs
{
    n               (4 1 1);
    delta           0.001;
}

hierarchicalCoeffs
{
    n               (4 1 1);
    delta           1e-6;
    order           xyz;
}

manualCoeffs
{
    dataFile        "cellDecomposition";
}


// ************************************************************************* //
